16

O -2.651548 0.898575 -0.184780
C -1.986492 -0.153538 -0.032883
O -2.644630 -1.357251 0.082121
C -0.528096 -0.117763 0.023310
C 0.232306 -1.253631 0.189105
C 1.610718 -1.213742 0.241519
C 2.292868 0.002979 0.125953
C 1.533681 1.147400 -0.040802
C 0.159407 1.078354 -0.089595
O -0.555149 2.273571 -0.260508
H -3.619774 -1.437938 0.384167
H -0.294438 -2.192560 0.278271
H 2.130141 -2.153229 0.374122
H 3.365980 -0.001226 0.170933
H 2.032964 2.101199 -0.132862
H -1.077937 2.378800 -1.128073
